REMARK  5 active torsions:
REMARK  status: ('A' for Active; 'I' for Inactive)
REMARK    1  A    between atoms: N4_4  and  C14_14 
REMARK    2  A    between atoms: C16_16  and  N17_17 
REMARK    3  A    between atoms: N17_17  and  C18_18 
REMARK    4  A    between atoms: C4_30  and  C17_32 
REMARK    5  A    between atoms: C17_32  and  O1_34 
ROOT
HETATM    1  C1  UNK A 301       7.447  -9.683 -23.133  1.00 15.78     0.050 C 
HETATM    2  C2  UNK A 301       6.328 -10.622 -23.509  1.00 14.78    -0.030 A 
HETATM    3  C3  UNK A 301       5.008 -10.331 -23.423  1.00 15.80     0.105 A 
HETATM    4  N4  UNK A 301       4.254 -11.400 -23.881  1.00 15.25    -0.324 N 
HETATM    5  C5  UNK A 301       5.133 -12.400 -24.277  1.00 14.36     0.031 A 
HETATM    6  C6  UNK A 301       6.420 -11.953 -24.043  1.00 14.28     0.040 A 
HETATM    7  C7  UNK A 301       7.540 -12.859 -24.347  1.00 16.83     0.162 C 
HETATM    8  O8  UNK A 301       8.706 -12.495 -24.243  1.00 18.24    -0.292 OA
HETATM    9  C9  UNK A 301       7.205 -14.251 -24.836  1.00 14.72     0.093 C 
HETATM   10  C10 UNK A 301       5.930 -14.357 -25.689  1.00 15.15    -0.036 C 
HETATM   11  C11 UNK A 301       6.134 -13.641 -27.027  1.00 14.16     0.015 C 
HETATM   12  C12 UNK A 301       5.598 -15.821 -25.964  1.00 15.52     0.015 C 
HETATM   13  C13 UNK A 301       4.777 -13.712 -24.911  1.00 14.35     0.067 C 
ENDROOT
BRANCH   4  14
HETATM   14  C14 UNK A 301       2.829 -11.365 -24.085  1.00 14.16     0.041 A 
HETATM   15  C30 UNK A 301       2.061 -12.499 -23.800  1.00 13.77     0.038 A 
HETATM   16  C28 UNK A 301       0.717 -12.443 -24.057  1.00 15.19    -0.036 A 
HETATM   17  C24 UNK A 301       0.069 -11.308 -24.533  1.00 13.97     0.064 A 
HETATM   18  C8  UNK A 301      -0.215 -13.305 -23.331  1.00  0.00     0.067 C 
HETATM   19  C25 UNK A 301      -1.417 -11.316 -24.818  1.00 14.73     0.254 C 
HETATM   20  C16 UNK A 301       0.864 -10.147 -24.798  1.00 14.57     0.047 A 
HETATM   21  N26 UNK A 301      -2.154 -11.994 -23.971  1.00 11.95    -0.350 N 
HETATM   22  O27 UNK A 301      -1.910 -10.681 -25.774  1.00 16.26    -0.268 OA
HETATM   23 2H26 UNK A 301      -3.156 -12.029 -24.090  1.00  0.00     0.163 HD
HETATM   24  C4  UNK A 301      -1.531 -12.692 -22.867  1.00  0.00     0.112 C 
HETATM   25  C15 UNK A 301       2.245 -10.200 -24.579  1.00 13.77     0.060 A 
BRANCH  24  26
HETATM   26  C17 UNK A 301      -1.262 -11.710 -21.732  1.00  0.00     0.189 C 
BRANCH  26  27
HETATM   27  O1  UNK A 301      -2.380 -11.190 -21.338  1.00  0.00    -0.399 OA
HETATM   28  H1  UNK A 301      -3.106 -11.554 -21.850  1.00  0.00     0.209 HD
ENDBRANCH  26  27
ENDBRANCH  24  26
BRANCH  20  29
HETATM   29  N17 UNK A 301       0.281  -8.972 -25.225  1.00 15.96    -0.382 N 
HETATM   30  H17 UNK A 301      -0.728  -8.965 -25.274  1.00  0.00     0.160 HD
BRANCH  29  31
HETATM   31  C18 UNK A 301       0.956  -7.737 -25.614  1.00 18.18     0.107 C 
HETATM   32  C20 UNK A 301       1.495  -7.848 -27.046  1.00 19.95     0.053 C 
HETATM   33  C21 UNK A 301       0.275  -7.519 -27.895  1.00 21.50     0.169 C 
HETATM   34  O22 UNK A 301      -0.606  -6.761 -27.044  1.00 21.01    -0.389 OA
HETATM   35  C23 UNK A 301      -0.039  -6.607 -25.743  1.00 20.19     0.192 C 
ENDBRANCH  29  31
ENDBRANCH  20  29
ENDBRANCH   4  14
TORSDOF 5
